<?xml version="1.0" encoding="UTF-8"?>

<!-- generated on 2025-07-20 15:50:32.256432 by osmWebWizard.py v1_23_1+0000-676720d13f6
<configuration>
    <net-file value="C:\Users\sunbe\Downloads\sumo-win64-1.23.1\sumo-1.23.1\tools\2025-07-20-15-50-29\osm.net.xml.gz"/>
    <output-trip-file value="C:\Users\sunbe\Downloads\sumo-win64-1.23.1\sumo-1.23.1\tools\2025-07-20-15-50-29\osm.passenger.trips.xml"/>
    <route-file value="C:\Users\sunbe\Downloads\sumo-win64-1.23.1\sumo-1.23.1\tools\2025-07-20-15-50-29\osm.passenger.rou.xml"/>
    <prefix value="veh"/>
    <trip-attributes value="departLane=&quot;best&quot;"/>
    <fringe-start-attributes value="departSpeed=&quot;max&quot;"/>
    <vehicle-class value="passenger"/>
    <lanes value="True"/>
    <fringe-factor value="5"/>
    <allow-fringe.min-length value="1000.0"/>
    <edge-permission value="passenger"/>
    <via-edge-types value="highway.motorway,highway.motorway_link,highway.trunk_link,highway.primary_link,highway.secondary_link,highway.tertiary_link"/>
    <min-distance value="300.0"/>
    <min-distance.fringe value="10.0"/>
    <remove-loops value="True"/>
    <validate value="True"/>
    <insertion-density value="240.0"/>
</configuration>
-->

<!-- generated on 2025-07-20 15:50:32 by Eclipse SUMO duarouter Version 1.23.1
<duarouterConfiguration xmlns:xsi="http://www.w3.org/2001/XMLSchema-instance" xsi:noNamespaceSchemaLocation="http://sumo.dlr.de/xsd/duarouterConfiguration.xsd">

    <input>
        <net-file value="C:\Users\sunbe\Downloads\sumo-win64-1.23.1\sumo-1.23.1\tools\2025-07-20-15-50-29\osm.net.xml.gz"/>
        <route-files value="C:\Users\sunbe\Downloads\sumo-win64-1.23.1\sumo-1.23.1\tools\2025-07-20-15-50-29\osm.passenger.trips.xml"/>
    </input>

    <output>
        <output-file value="C:\Users\sunbe\Downloads\sumo-win64-1.23.1\sumo-1.23.1\tools\2025-07-20-15-50-29\osm.passenger.trips.xml.tmp"/>
        <alternatives-output value="NUL"/>
        <write-trips value="true"/>
    </output>

    <processing>
        <remove-loops value="true"/>
    </processing>

    <time>
        <begin value="0.0"/>
        <end value="3600.0"/>
    </time>

    <report>
        <no-warnings value="true"/>
        <ignore-errors value="true"/>
        <no-step-log value="true"/>
    </report>

</duarouterConfiguration>
-->

<routes xmlns:xsi="http://www.w3.org/2001/XMLSchema-instance" xsi:noNamespaceSchemaLocation="http://sumo.dlr.de/xsd/routes_file.xsd">
    <vType id="veh_passenger" vClass="passenger"/>
    <trip id="veh0" type="veh_passenger" depart="0.00" departLane="best" departSpeed="max" from="-511352035" to="-11819330"/>
    <trip id="veh1" type="veh_passenger" depart="3.84" departLane="best" departSpeed="max" from="11819330" to="511352037#0"/>
    <trip id="veh2" type="veh_passenger" depart="7.68" departLane="best" from="511352038" to="-11819330"/>
    <trip id="veh3" type="veh_passenger" depart="11.52" departLane="best" from="-511352036#2" to="-11819330"/>
    <trip id="veh4" type="veh_passenger" depart="15.36" departLane="best" departSpeed="max" from="-511352035" to="-11819330"/>
    <trip id="veh5" type="veh_passenger" depart="19.20" departLane="best" departSpeed="max" from="11819330" to="511352035"/>
    <trip id="veh6" type="veh_passenger" depart="23.04" departLane="best" from="-511352050" to="-11819330"/>
    <trip id="veh7" type="veh_passenger" depart="26.88" departLane="best" departSpeed="max" from="-511352035" to="-11819330"/>
    <trip id="veh8" type="veh_passenger" depart="30.72" departLane="best" departSpeed="max" from="-511352035" to="-11819330"/>
    <trip id="veh9" type="veh_passenger" depart="34.56" departLane="best" departSpeed="max" from="-511352035" to="-11819330"/>
    <trip id="veh10" type="veh_passenger" depart="38.40" departLane="best" departSpeed="max" from="11819330" to="-511352038"/>
    <trip id="veh11" type="veh_passenger" depart="42.24" departLane="best" departSpeed="max" from="-511352035" to="-11819330"/>
    <trip id="veh12" type="veh_passenger" depart="46.08" departLane="best" departSpeed="max" from="11819330" to="511352037#0"/>
    <trip id="veh13" type="veh_passenger" depart="49.92" departLane="best" departSpeed="max" from="-511352035" to="-11819330"/>
    <trip id="veh14" type="veh_passenger" depart="53.76" departLane="best" departSpeed="max" from="11819330" to="511352037#0"/>
    <trip id="veh15" type="veh_passenger" depart="57.60" departLane="best" departSpeed="max" from="-511352035" to="-11819330"/>
    <trip id="veh16" type="veh_passenger" depart="61.44" departLane="best" from="-511352050" to="-11819330"/>
    <trip id="veh17" type="veh_passenger" depart="65.28" departLane="best" departSpeed="max" from="11819330" to="54358148"/>
    <trip id="veh18" type="veh_passenger" depart="69.12" departLane="best" departSpeed="max" from="-511352035" to="-11819330"/>
    <trip id="veh19" type="veh_passenger" depart="72.96" departLane="best" departSpeed="max" from="-511352035" to="-11819330"/>
    <trip id="veh20" type="veh_passenger" depart="76.80" departLane="best" departSpeed="max" from="54358147" to="54349866"/>
    <trip id="veh21" type="veh_passenger" depart="80.64" departLane="best" departSpeed="max" from="11819330" to="511352035"/>
    <trip id="veh22" type="veh_passenger" depart="84.48" departLane="best" from="511352038" to="-11819330"/>
    <trip id="veh23" type="veh_passenger" depart="88.32" departLane="best" departSpeed="max" from="11819330" to="511352035"/>
    <trip id="veh24" type="veh_passenger" depart="92.16" departLane="best" departSpeed="max" from="-511352035" to="-11819330"/>
    <trip id="veh25" type="veh_passenger" depart="96.00" departLane="best" from="-511352036#2" to="-11819330"/>
    <trip id="veh26" type="veh_passenger" depart="99.84" departLane="best" departSpeed="max" from="-511352035" to="-11819330"/>
    <trip id="veh27" type="veh_passenger" depart="103.67" departLane="best" departSpeed="max" from="-511352035" to="-11819330"/>
    <trip id="veh28" type="veh_passenger" depart="107.51" departLane="best" from="511352038" to="-11819330"/>
    <trip id="veh29" type="veh_passenger" depart="111.35" departLane="best" departSpeed="max" from="-511352035" to="-11819330"/>
    <trip id="veh30" type="veh_passenger" depart="115.19" departLane="best" from="-511352050" to="-11819330"/>
    <trip id="veh31" type="veh_passenger" depart="119.03" departLane="best" departSpeed="max" from="11819330" to="511352037#0"/>
    <trip id="veh32" type="veh_passenger" depart="122.87" departLane="best" departSpeed="max" from="54358147" to="-11819330"/>
    <trip id="veh33" type="veh_passenger" depart="126.71" departLane="best" from="511352038" to="-11819330"/>
    <trip id="veh34" type="veh_passenger" depart="130.55" departLane="best" from="-511352050" to="-11819330"/>
    <trip id="veh35" type="veh_passenger" depart="134.39" departLane="best" departSpeed="max" from="54358147" to="54349866"/>
    <trip id="veh36" type="veh_passenger" depart="138.23" departLane="best" from="-511352050" to="-11819330"/>
    <trip id="veh37" type="veh_passenger" depart="142.07" departLane="best" from="511352038" to="-11819330"/>
    <trip id="veh38" type="veh_passenger" depart="145.91" departLane="best" departSpeed="max" from="-511352035" to="-11819330"/>
    <trip id="veh39" type="veh_passenger" depart="149.75" departLane="best" departSpeed="max" from="-511352035" to="-11819330"/>
    <trip id="veh40" type="veh_passenger" depart="153.59" departLane="best" departSpeed="max" from="11819330" to="511352037#0"/>
    <trip id="veh41" type="veh_passenger" depart="157.43" departLane="best" departSpeed="max" from="-511352035" to="-11819330"/>
    <trip id="veh42" type="veh_passenger" depart="161.27" departLane="best" from="511352038" to="-11819330"/>
    <trip id="veh43" type="veh_passenger" depart="165.11" departLane="best" departSpeed="max" from="11819330" to="511352037#0"/>
    <trip id="veh44" type="veh_passenger" depart="168.95" departLane="best" departSpeed="max" from="11819330" to="511352036#0"/>
    <trip id="veh45" type="veh_passenger" depart="172.79" departLane="best" departSpeed="max" from="-511352035" to="-11819330"/>
    <trip id="veh46" type="veh_passenger" depart="176.63" departLane="best" departSpeed="max" from="-511352035" to="-11819330"/>
    <trip id="veh47" type="veh_passenger" depart="180.47" departLane="best" departSpeed="max" from="11819330" to="54358148"/>
    <trip id="veh48" type="veh_passenger" depart="184.31" departLane="best" departSpeed="max" from="11819330" to="54358148"/>
    <trip id="veh49" type="veh_passenger" depart="188.15" departLane="best" departSpeed="max" from="-511352035" to="-11819330"/>
    <trip id="veh50" type="veh_passenger" depart="191.99" departLane="best" departSpeed="max" from="11819330" to="511352036#0"/>
    <trip id="veh51" type="veh_passenger" depart="195.83" departLane="best" from="-511352050" to="-11819330"/>
    <trip id="veh52" type="veh_passenger" depart="199.67" departLane="best" departSpeed="max" from="11819330" to="511352035"/>
    <trip id="veh53" type="veh_passenger" depart="203.51" departLane="best" from="-511352036#2" to="-11819330"/>
    <trip id="veh54" type="veh_passenger" depart="207.35" departLane="best" departSpeed="max" from="-511352035" to="-11819330"/>
    <trip id="veh55" type="veh_passenger" depart="211.19" departLane="best" departSpeed="max" from="54358147" to="-11819330"/>
    <trip id="veh56" type="veh_passenger" depart="215.03" departLane="best" departSpeed="max" from="-511352035" to="-11819330"/>
    <trip id="veh57" type="veh_passenger" depart="218.87" departLane="best" from="-511352036#2" to="-11819330"/>
    <trip id="veh58" type="veh_passenger" depart="222.71" departLane="best" from="-511352050" to="-11819330"/>
    <trip id="veh59" type="veh_passenger" depart="226.55" departLane="best" departSpeed="max" from="-511352035" to="-11819330"/>
    <trip id="veh60" type="veh_passenger" depart="230.39" departLane="best" departSpeed="max" from="11819330" to="511352037#0"/>
    <trip id="veh61" type="veh_passenger" depart="234.23" departLane="best" departSpeed="max" from="54358147" to="-11819330"/>
    <trip id="veh62" type="veh_passenger" depart="238.07" departLane="best" departSpeed="max" from="54358147" to="-11819330"/>
    <trip id="veh63" type="veh_passenger" depart="241.91" departLane="best" departSpeed="max" from="11819330" to="511352036#0"/>
    <trip id="veh64" type="veh_passenger" depart="245.75" departLane="best" departSpeed="max" from="11819330" to="511352035"/>
    <trip id="veh65" type="veh_passenger" depart="249.59" departLane="best" departSpeed="max" from="11819330" to="511352037#0"/>
    <trip id="veh66" type="veh_passenger" depart="253.43" departLane="best" departSpeed="max" from="-511352035" to="-11819330"/>
    <trip id="veh67" type="veh_passenger" depart="257.27" departLane="best" departSpeed="max" from="11819330" to="511352036#0"/>
    <trip id="veh68" type="veh_passenger" depart="261.11" departLane="best" departSpeed="max" from="11819330" to="511352036#0"/>
    <trip id="veh69" type="veh_passenger" depart="264.95" departLane="best" departSpeed="max" from="11819330" to="511352035"/>
    <trip id="veh70" type="veh_passenger" depart="268.79" departLane="best" from="-511352036#2" to="-11819330"/>
    <trip id="veh71" type="veh_passenger" depart="272.63" departLane="best" from="-511352050" to="-11819330"/>
    <trip id="veh72" type="veh_passenger" depart="276.47" departLane="best" departSpeed="max" from="11819330" to="511352036#0"/>
    <trip id="veh73" type="veh_passenger" depart="280.31" departLane="best" departSpeed="max" from="-511352035" to="-11819330"/>
    <trip id="veh74" type="veh_passenger" depart="284.15" departLane="best" from="-511352050" to="-11819330"/>
    <trip id="veh75" type="veh_passenger" depart="287.99" departLane="best" from="511352038" to="-11819330"/>
    <trip id="veh76" type="veh_passenger" depart="291.83" departLane="best" departSpeed="max" from="11819330" to="54349866"/>
    <trip id="veh77" type="veh_passenger" depart="295.67" departLane="best" from="511352038" to="-11819330"/>
    <trip id="veh78" type="veh_passenger" depart="299.51" departLane="best" departSpeed="max" from="11819330" to="54358148"/>
    <trip id="veh79" type="veh_passenger" depart="303.35" departLane="best" departSpeed="max" from="11819330" to="54358148"/>
    <trip id="veh80" type="veh_passenger" depart="307.19" departLane="best" departSpeed="max" from="11819330" to="511352035"/>
    <trip id="veh81" type="veh_passenger" depart="311.02" departLane="best" departSpeed="max" from="54358147" to="54349866"/>
    <trip id="veh82" type="veh_passenger" depart="314.86" departLane="best" from="-511352036#2" to="-11819330"/>
    <trip id="veh83" type="veh_passenger" depart="318.70" departLane="best" departSpeed="max" from="11819330" to="511352035"/>
    <trip id="veh84" type="veh_passenger" depart="322.54" departLane="best" departSpeed="max" from="11819330" to="511352036#0"/>
    <trip id="veh85" type="veh_passenger" depart="326.38" departLane="best" from="-511352050" to="-11819330"/>
    <trip id="veh86" type="veh_passenger" depart="330.22" departLane="best" departSpeed="max" from="-511352035" to="-11819330"/>
    <trip id="veh87" type="veh_passenger" depart="334.06" departLane="best" departSpeed="max" from="11819330" to="-511352038"/>
    <trip id="veh88" type="veh_passenger" depart="337.90" departLane="best" departSpeed="max" from="-511352035" to="-11819330"/>
    <trip id="veh89" type="veh_passenger" depart="341.74" departLane="best" departSpeed="max" from="-511352035" to="-11819330"/>
    <trip id="veh90" type="veh_passenger" depart="345.58" departLane="best" from="-511352036#2" to="-11819330"/>
    <trip id="veh91" type="veh_passenger" depart="349.42" departLane="best" departSpeed="max" from="-511352035" to="-11819330"/>
    <trip id="veh92" type="veh_passenger" depart="353.26" departLane="best" from="-511352036#2" to="-11819330"/>
    <trip id="veh93" type="veh_passenger" depart="357.10" departLane="best" departSpeed="max" from="11819330" to="-511352038"/>
    <trip id="veh94" type="veh_passenger" depart="360.94" departLane="best" departSpeed="max" from="11819330" to="54349866"/>
    <trip id="veh95" type="veh_passenger" depart="364.78" departLane="best" departSpeed="max" from="-511352035" to="-11819330"/>
    <trip id="veh96" type="veh_passenger" depart="368.62" departLane="best" departSpeed="max" from="11819330" to="54349866"/>
    <trip id="veh97" type="veh_passenger" depart="372.46" departLane="best" departSpeed="max" from="11819330" to="54349866"/>
    <trip id="veh98" type="veh_passenger" depart="376.30" departLane="best" departSpeed="max" from="54358147" to="-11819330"/>
    <trip id="veh99" type="veh_passenger" depart="380.14" departLane="best" departSpeed="max" from="-511352035" to="-11819330"/>
    <trip id="veh100" type="veh_passenger" depart="383.98" departLane="best" departSpeed="max" from="11819330" to="54349866"/>
    <trip id="veh101" type="veh_passenger" depart="387.82" departLane="best" departSpeed="max" from="-511352035" to="-11819330"/>
    <trip id="veh102" type="veh_passenger" depart="391.66" departLane="best" departSpeed="max" from="11819330" to="511352037#0"/>
    <trip id="veh103" type="veh_passenger" depart="395.50" departLane="best" departSpeed="max" from="11819330" to="54349866"/>
    <trip id="veh104" type="veh_passenger" depart="399.34" departLane="best" departSpeed="max" from="11819330" to="511352037#0"/>
    <trip id="veh105" type="veh_passenger" depart="403.18" departLane="best" departSpeed="max" from="11819330" to="54358148"/>
    <trip id="veh106" type="veh_passenger" depart="407.02" departLane="best" from="-511352050" to="-11819330"/>
    <trip id="veh107" type="veh_passenger" depart="410.86" departLane="best" from="511352038" to="-11819330"/>
    <trip id="veh108" type="veh_passenger" depart="414.70" departLane="best" departSpeed="max" from="-511352035" to="-11819330"/>
    <trip id="veh109" type="veh_passenger" depart="418.54" departLane="best" from="-511352050" to="-11819330"/>
    <trip id="veh110" type="veh_passenger" depart="422.38" departLane="best" departSpeed="max" from="11819330" to="511352036#0"/>
    <trip id="veh111" type="veh_passenger" depart="426.22" departLane="best" departSpeed="max" from="11819330" to="511352037#0"/>
    <trip id="veh112" type="veh_passenger" depart="430.06" departLane="best" departSpeed="max" from="-511352035" to="-11819330"/>
    <trip id="veh113" type="veh_passenger" depart="433.90" departLane="best" departSpeed="max" from="11819330" to="511352036#0"/>
    <trip id="veh114" type="veh_passenger" depart="437.74" departLane="best" departSpeed="max" from="11819330" to="511352035"/>
    <trip id="veh115" type="veh_passenger" depart="441.58" departLane="best" departSpeed="max" from="11819330" to="511352036#0"/>
    <trip id="veh116" type="veh_passenger" depart="445.42" departLane="best" departSpeed="max" from="11819330" to="511352036#0"/>
    <trip id="veh117" type="veh_passenger" depart="449.26" departLane="best" departSpeed="max" from="-511352035" to="-11819330"/>
    <trip id="veh118" type="veh_passenger" depart="453.10" departLane="best" departSpeed="max" from="-511352035" to="-11819330"/>
    <trip id="veh119" type="veh_passenger" depart="456.94" departLane="best" departSpeed="max" from="-511352035" to="-11819330"/>
    <trip id="veh120" type="veh_passenger" depart="460.78" departLane="best" departSpeed="max" from="-511352035" to="-11819330"/>
    <trip id="veh121" type="veh_passenger" depart="464.62" departLane="best" departSpeed="max" from="-511352035" to="-11819330"/>
    <trip id="veh122" type="veh_passenger" depart="468.46" departLane="best" departSpeed="max" from="-511352035" to="-11819330"/>
    <trip id="veh123" type="veh_passenger" depart="472.30" departLane="best" departSpeed="max" from="-511352035" to="-11819330"/>
    <trip id="veh124" type="veh_passenger" depart="476.14" departLane="best" departSpeed="max" from="-511352035" to="-11819330"/>
    <trip id="veh125" type="veh_passenger" depart="479.98" departLane="best" departSpeed="max" from="11819330" to="511352036#0"/>
    <trip id="veh126" type="veh_passenger" depart="483.82" departLane="best" departSpeed="max" from="54358147" to="-11819330"/>
    <trip id="veh127" type="veh_passenger" depart="487.66" departLane="best" departSpeed="max" from="11819330" to="511352037#0"/>
    <trip id="veh128" type="veh_passenger" depart="491.50" departLane="best" from="-511352036#2" to="-11819330"/>
    <trip id="veh129" type="veh_passenger" depart="495.34" departLane="best" departSpeed="max" from="11819330" to="511352037#0"/>
    <trip id="veh130" type="veh_passenger" depart="499.18" departLane="best" departSpeed="max" from="11819330" to="54358148"/>
    <trip id="veh131" type="veh_passenger" depart="503.02" departLane="best" departSpeed="max" from="-511352035" to="-11819330"/>
    <trip id="veh132" type="veh_passenger" depart="506.86" departLane="best" departSpeed="max" from="-511352035" to="-11819330"/>
    <trip id="veh133" type="veh_passenger" depart="510.70" departLane="best" departSpeed="max" from="11819330" to="511352036#0"/>
    <trip id="veh134" type="veh_passenger" depart="514.53" departLane="best" departSpeed="max" from="11819330" to="511352035"/>
    <trip id="veh135" type="veh_passenger" depart="518.37" departLane="best" departSpeed="max" from="11819330" to="54358148"/>
    <trip id="veh136" type="veh_passenger" depart="522.21" departLane="best" departSpeed="max" from="11819330" to="54358148"/>
    <trip id="veh137" type="veh_passenger" depart="526.05" departLane="best" departSpeed="max" from="11819330" to="54358148"/>
    <trip id="veh138" type="veh_passenger" depart="529.89" departLane="best" from="-511352050" to="-11819330"/>
    <trip id="veh139" type="veh_passenger" depart="533.73" departLane="best" departSpeed="max" from="11819330" to="511352035"/>
    <trip id="veh140" type="veh_passenger" depart="537.57" departLane="best" departSpeed="max" from="-511352035" to="-11819330"/>
    <trip id="veh141" type="veh_passenger" depart="541.41" departLane="best" departSpeed="max" from="11819330" to="-511352038"/>
    <trip id="veh142" type="veh_passenger" depart="545.25" departLane="best" from="511352038" to="-11819330"/>
    <trip id="veh143" type="veh_passenger" depart="549.09" departLane="best" departSpeed="max" from="-511352035" to="-11819330"/>
    <trip id="veh144" type="veh_passenger" depart="552.93" departLane="best" departSpeed="max" from="11819330" to="511352036#0"/>
    <trip id="veh145" type="veh_passenger" depart="556.77" departLane="best" departSpeed="max" from="54358147" to="-11819330"/>
    <trip id="veh146" type="veh_passenger" depart="560.61" departLane="best" departSpeed="max" from="11819330" to="511352037#0"/>
    <trip id="veh147" type="veh_passenger" depart="564.45" departLane="best" from="511352038" to="-11819330"/>
    <trip id="veh148" type="veh_passenger" depart="568.29" departLane="best" departSpeed="max" from="11819330" to="54349866"/>
    <trip id="veh149" type="veh_passenger" depart="572.13" departLane="best" departSpeed="max" from="11819330" to="511352037#0"/>
    <trip id="veh150" type="veh_passenger" depart="575.97" departLane="best" from="-511352050" to="-11819330"/>
    <trip id="veh151" type="veh_passenger" depart="579.81" departLane="best" from="-511352036#2" to="-11819330"/>
    <trip id="veh152" type="veh_passenger" depart="583.65" departLane="best" departSpeed="max" from="11819330" to="511352035"/>
    <trip id="veh153" type="veh_passenger" depart="587.49" departLane="best" departSpeed="max" from="54358147" to="-11819330"/>
    <trip id="veh154" type="veh_passenger" depart="591.33" departLane="best" departSpeed="max" from="11819330" to="54358148"/>
    <trip id="veh155" type="veh_passenger" depart="595.17" departLane="best" from="511352038" to="-11819330"/>
    <trip id="veh156" type="veh_passenger" depart="599.01" departLane="best" from="-511352036#2" to="-11819330"/>
    <trip id="veh157" type="veh_passenger" depart="602.85" departLane="best" departSpeed="max" from="11819330" to="-511352038"/>
    <trip id="veh158" type="veh_passenger" depart="606.69" departLane="best" departSpeed="max" from="11819330" to="54349866"/>
    <trip id="veh159" type="veh_passenger" depart="610.53" departLane="best" departSpeed="max" from="11819330" to="54358148"/>
    <trip id="veh160" type="veh_passenger" depart="614.37" departLane="best" departSpeed="max" from="11819330" to="511352037#0"/>
    <trip id="veh161" type="veh_passenger" depart="618.21" departLane="best" departSpeed="max" from="11819330" to="54349866"/>
    <trip id="veh162" type="veh_passenger" depart="622.05" departLane="best" departSpeed="max" from="11819330" to="54349866"/>
    <trip id="veh163" type="veh_passenger" depart="625.89" departLane="best" from="511352038" to="-11819330"/>
    <trip id="veh164" type="veh_passenger" depart="629.73" departLane="best" departSpeed="max" from="11819330" to="511352037#0"/>
    <trip id="veh165" type="veh_passenger" depart="633.57" departLane="best" departSpeed="max" from="11819330" to="54358148"/>
    <trip id="veh166" type="veh_passenger" depart="637.41" departLane="best" departSpeed="max" from="11819330" to="54349866"/>
    <trip id="veh167" type="veh_passenger" depart="641.25" departLane="best" departSpeed="max" from="-511352035" to="-11819330"/>
    <trip id="veh168" type="veh_passenger" depart="645.09" departLane="best" departSpeed="max" from="-511352035" to="-11819330"/>
    <trip id="veh169" type="veh_passenger" depart="648.93" departLane="best" departSpeed="max" from="11819330" to="511352037#0"/>
    <trip id="veh170" type="veh_passenger" depart="652.77" departLane="best" from="511352038" to="-11819330"/>
    <trip id="veh171" type="veh_passenger" depart="656.61" departLane="best" departSpeed="max" from="11819330" to="511352035"/>
    <trip id="veh172" type="veh_passenger" depart="660.45" departLane="best" departSpeed="max" from="11819330" to="54349866"/>
    <trip id="veh173" type="veh_passenger" depart="664.29" departLane="best" departSpeed="max" from="11819330" to="-511352038"/>
    <trip id="veh174" type="veh_passenger" depart="668.13" departLane="best" departSpeed="max" from="11819330" to="511352037#0"/>
    <trip id="veh175" type="veh_passenger" depart="671.97" departLane="best" departSpeed="max" from="11819330" to="-511352038"/>
    <trip id="veh176" type="veh_passenger" depart="675.81" departLane="best" departSpeed="max" from="11819330" to="54349866"/>
    <trip id="veh177" type="veh_passenger" depart="679.65" departLane="best" departSpeed="max" from="11819330" to="54358148"/>
    <trip id="veh178" type="veh_passenger" depart="683.49" departLane="best" departSpeed="max" from="11819330" to="511352036#0"/>
    <trip id="veh179" type="veh_passenger" depart="687.33" departLane="best" departSpeed="max" from="-511352035" to="-11819330"/>
    <trip id="veh180" type="veh_passenger" depart="691.17" departLane="best" from="-511352050" to="-11819330"/>
    <trip id="veh181" type="veh_passenger" depart="695.01" departLane="best" departSpeed="max" from="-511352035" to="-11819330"/>
    <trip id="veh182" type="veh_passenger" depart="698.85" departLane="best" departSpeed="max" from="54358147" to="-11819330"/>
    <trip id="veh183" type="veh_passenger" depart="702.69" departLane="best" departSpeed="max" from="54358147" to="54349866"/>
    <trip id="veh184" type="veh_passenger" depart="706.53" departLane="best" departSpeed="max" from="11819330" to="54358148"/>
    <trip id="veh185" type="veh_passenger" depart="710.37" departLane="best" departSpeed="max" from="54358147" to="54349866"/>
    <trip id="veh186" type="veh_passenger" depart="714.21" departLane="best" departSpeed="max" from="11819330" to="511352036#0"/>
    <trip id="veh187" type="veh_passenger" depart="718.05" departLane="best" departSpeed="max" from="-511352035" to="-11819330"/>
    <trip id="veh188" type="veh_passenger" depart="721.88" departLane="best" departSpeed="max" from="-511352035" to="-11819330"/>
    <trip id="veh189" type="veh_passenger" depart="725.72" departLane="best" departSpeed="max" from="11819330" to="54349866"/>
    <trip id="veh190" type="veh_passenger" depart="729.56" departLane="best" departSpeed="max" from="-511352035" to="-11819330"/>
    <trip id="veh191" type="veh_passenger" depart="733.40" departLane="best" departSpeed="max" from="54358147" to="-11819330"/>
    <trip id="veh192" type="veh_passenger" depart="737.24" departLane="best" departSpeed="max" from="54358147" to="54349866"/>
    <trip id="veh193" type="veh_passenger" depart="741.08" departLane="best" departSpeed="max" from="-511352035" to="-11819330"/>
    <trip id="veh194" type="veh_passenger" depart="744.92" departLane="best" departSpeed="max" from="11819330" to="511352037#0"/>
    <trip id="veh195" type="veh_passenger" depart="748.76" departLane="best" from="-511352036#2" to="-11819330"/>
    <trip id="veh196" type="veh_passenger" depart="752.60" departLane="best" departSpeed="max" from="-511352035" to="-11819330"/>
    <trip id="veh197" type="veh_passenger" depart="756.44" departLane="best" departSpeed="max" from="-511352035" to="-11819330"/>
    <trip id="veh198" type="veh_passenger" depart="760.28" departLane="best" departSpeed="max" from="-511352035" to="-11819330"/>
    <trip id="veh199" type="veh_passenger" depart="764.12" departLane="best" departSpeed="max" from="-511352035" to="-11819330"/>
    <trip id="veh200" type="veh_passenger" depart="767.96" departLane="best" departSpeed="max" from="11819330" to="511352035"/>
    <trip id="veh201" type="veh_passenger" depart="771.80" departLane="best" departSpeed="max" from="11819330" to="511352035"/>
    <trip id="veh202" type="veh_passenger" depart="775.64" departLane="best" departSpeed="max" from="54358147" to="-11819330"/>
    <trip id="veh203" type="veh_passenger" depart="779.48" departLane="best" departSpeed="max" from="54358147" to="-11819330"/>
    <trip id="veh204" type="veh_passenger" depart="783.32" departLane="best" departSpeed="max" from="11819330" to="511352035"/>
    <trip id="veh205" type="veh_passenger" depart="787.16" departLane="best" departSpeed="max" from="54358147" to="-11819330"/>
    <trip id="veh206" type="veh_passenger" depart="791.00" departLane="best" departSpeed="max" from="11819330" to="511352035"/>
    <trip id="veh207" type="veh_passenger" depart="794.84" departLane="best" departSpeed="max" from="11819330" to="54349866"/>
    <trip id="veh208" type="veh_passenger" depart="798.68" departLane="best" departSpeed="max" from="11819330" to="54349866"/>
    <trip id="veh209" type="veh_passenger" depart="802.52" departLane="best" from="-511352036#2" to="-11819330"/>
    <trip id="veh210" type="veh_passenger" depart="806.36" departLane="best" departSpeed="max" from="-511352035" to="-11819330"/>
    <trip id="veh211" type="veh_passenger" depart="810.20" departLane="best" departSpeed="max" from="-511352035" to="-11819330"/>
    <trip id="veh212" type="veh_passenger" depart="814.04" departLane="best" departSpeed="max" from="54358147" to="-11819330"/>
    <trip id="veh213" type="veh_passenger" depart="817.88" departLane="best" from="-511352050" to="-11819330"/>
    <trip id="veh214" type="veh_passenger" depart="821.72" departLane="best" departSpeed="max" from="11819330" to="511352035"/>
    <trip id="veh215" type="veh_passenger" depart="825.56" departLane="best" departSpeed="max" from="-511352035" to="-11819330"/>
    <trip id="veh216" type="veh_passenger" depart="829.40" departLane="best" departSpeed="max" from="11819330" to="54349866"/>