<?xml version="1.0" encoding="UTF-8"?>

<!-- generated on 2025-07-20 15:50:32.957026 by osmWebWizard.py v1_23_1+0000-676720d13f6
<configuration>
    <net-file value="C:\Users\sunbe\Downloads\sumo-win64-1.23.1\sumo-1.23.1\tools\2025-07-20-15-50-29\osm.net.xml.gz"/>
    <output-trip-file value="C:\Users\sunbe\Downloads\sumo-win64-1.23.1\sumo-1.23.1\tools\2025-07-20-15-50-29\osm.truck.trips.xml"/>
    <route-file value="C:\Users\sunbe\Downloads\sumo-win64-1.23.1\sumo-1.23.1\tools\2025-07-20-15-50-29\osm.truck.rou.xml"/>
    <prefix value="truck"/>
    <trip-attributes value="departLane=&quot;best&quot;"/>
    <fringe-start-attributes value="departSpeed=&quot;max&quot;"/>
    <vehicle-class value="truck"/>
    <fringe-factor value="5"/>
    <edge-permission value="truck"/>
    <via-edge-types value="highway.motorway,highway.motorway_link,highway.trunk_link,highway.primary_link,highway.secondary_link,highway.tertiary_link"/>
    <min-distance value="600.0"/>
    <min-distance.fringe value="10.0"/>
    <remove-loops value="True"/>
    <validate value="True"/>
    <insertion-density value="160.0"/>
</configuration>
-->

<!-- generated on 2025-07-20 15:50:32 by Eclipse SUMO duarouter Version 1.23.1
<duarouterConfiguration xmlns:xsi="http://www.w3.org/2001/XMLSchema-instance" xsi:noNamespaceSchemaLocation="http://sumo.dlr.de/xsd/duarouterConfiguration.xsd">

    <input>
        <net-file value="C:\Users\sunbe\Downloads\sumo-win64-1.23.1\sumo-1.23.1\tools\2025-07-20-15-50-29\osm.net.xml.gz"/>
        <route-files value="C:\Users\sunbe\Downloads\sumo-win64-1.23.1\sumo-1.23.1\tools\2025-07-20-15-50-29\osm.truck.trips.xml"/>
    </input>

    <output>
        <output-file value="C:\Users\sunbe\Downloads\sumo-win64-1.23.1\sumo-1.23.1\tools\2025-07-20-15-50-29\osm.truck.trips.xml.tmp"/>
        <alternatives-output value="NUL"/>
        <write-trips value="true"/>
    </output>

    <processing>
        <remove-loops value="true"/>
    </processing>

    <time>
        <begin value="0.0"/>
        <end value="3600.0"/>
    </time>

    <report>
        <no-warnings value="true"/>
        <ignore-errors value="true"/>
        <no-step-log value="true"/>
    </report>

</duarouterConfiguration>
-->

<routes xmlns:xsi="http://www.w3.org/2001/XMLSchema-instance" xsi:noNamespaceSchemaLocation="http://sumo.dlr.de/xsd/routes_file.xsd">
    <vType id="truck_truck" vClass="truck"/>
    <trip id="truck0" type="truck_truck" depart="0.00" departLane="best" from="-511352036#2" to="-11819330"/>
    <trip id="truck1" type="truck_truck" depart="5.76" departLane="best" departSpeed="max" from="54358147" to="-11819330"/>
    <trip id="truck2" type="truck_truck" depart="11.52" departLane="best" departSpeed="max" from="54358147" to="-11819330"/>
    <trip id="truck3" type="truck_truck" depart="17.28" departLane="best" from="-511352050" to="-11819330"/>
    <trip id="truck4" type="truck_truck" depart="23.04" departLane="best" departSpeed="max" from="-511352035" to="-11819330"/>
    <trip id="truck5" type="truck_truck" depart="28.80" departLane="best" departSpeed="max" from="11819330" to="54358148"/>
    <trip id="truck6" type="truck_truck" depart="34.56" departLane="best" departSpeed="max" from="11819330" to="54349866"/>
    <trip id="truck7" type="truck_truck" depart="40.32" departLane="best" departSpeed="max" from="-511352035" to="-11819330"/>
    <trip id="truck8" type="truck_truck" depart="46.08" departLane="best" departSpeed="max" from="11819330" to="54358148"/>
    <trip id="truck9" type="truck_truck" depart="51.84" departLane="best" departSpeed="max" from="11819330" to="511352036#0"/>
    <trip id="truck10" type="truck_truck" depart="57.60" departLane="best" departSpeed="max" from="-511352035" to="-11819330"/>
    <trip id="truck11" type="truck_truck" depart="63.36" departLane="best" departSpeed="max" from="11819330" to="54358148"/>
    <trip id="truck12" type="truck_truck" depart="69.12" departLane="best" departSpeed="max" from="54358147" to="-11819330"/>
    <trip id="truck13" type="truck_truck" depart="74.88" departLane="best" departSpeed="max" from="11819330" to="511352037#0"/>
    <trip id="truck14" type="truck_truck" depart="80.64" departLane="best" departSpeed="max" from="11819330" to="511352036#0"/>
    <trip id="truck15" type="truck_truck" depart="86.40" departLane="best" departSpeed="max" from="11819330" to="54349866"/>
    <trip id="truck16" type="truck_truck" depart="92.16" departLane="best" departSpeed="max" from="11819330" to="511352036#0"/>
    <trip id="truck17" type="truck_truck" depart="97.92" departLane="best" departSpeed="max" from="54358147" to="-11819330"/>
    <trip id="truck18" type="truck_truck" depart="103.67" departLane="best" departSpeed="max" from="-511352035" to="-11819330"/>
    <trip id="truck19" type="truck_truck" depart="109.43" departLane="best" departSpeed="max" from="11819330" to="54349866"/>
    <trip id="truck20" type="truck_truck" depart="115.19" departLane="best" departSpeed="max" from="54358147" to="-11819330"/>
    <trip id="truck21" type="truck_truck" depart="120.95" departLane="best" departSpeed="max" from="11819330" to="511352035"/>
    <trip id="truck22" type="truck_truck" depart="126.71" departLane="best" departSpeed="max" from="54358147" to="-11819330"/>
    <trip id="truck23" type="truck_truck" depart="132.47" departLane="best" departSpeed="max" from="11819330" to="511352035"/>
    <trip id="truck24" type="truck_truck" depart="138.23" departLane="best" departSpeed="max" from="11819330" to="54358148"/>
    <trip id="truck25" type="truck_truck" depart="143.99" departLane="best" departSpeed="max" from="54358147" to="-11819330"/>
    <trip id="truck26" type="truck_truck" depart="149.75" departLane="best" departSpeed="max" from="11819330" to="511352036#0"/>
    <trip id="truck27" type="truck_truck" depart="155.51" departLane="best" departSpeed="max" from="11819330" to="511352035"/>
    <trip id="truck28" type="truck_truck" depart="161.27" departLane="best" departSpeed="max" from="11819330" to="54349866"/>
    <trip id="truck29" type="truck_truck" depart="167.03" departLane="best" departSpeed="max" from="11819330" to="54349866"/>
    <trip id="truck30" type="truck_truck" depart="172.79" departLane="best" departSpeed="max" from="11819330" to="54358148"/>
    <trip id="truck31" type="truck_truck" depart="178.55" departLane="best" departSpeed="max" from="-511352035" to="-11819330"/>
    <trip id="truck32" type="truck_truck" depart="184.31" departLane="best" departSpeed="max" from="11819330" to="54349866"/>
    <trip id="truck33" type="truck_truck" depart="190.07" departLane="best" departSpeed="max" from="-511352035" to="-11819330"/>
    <trip id="truck34" type="truck_truck" depart="195.83" departLane="best" departSpeed="max" from="11819330" to="54349866"/>
    <trip id="truck35" type="truck_truck" depart="201.59" departLane="best" departSpeed="max" from="11819330" to="54358148"/>
    <trip id="truck36" type="truck_truck" depart="207.35" departLane="best" from="-511352050" to="-11819330"/>
    <trip id="truck37" type="truck_truck" depart="213.11" departLane="best" departSpeed="max" from="11819330" to="54358148"/>
    <trip id="truck38" type="truck_truck" depart="218.87" departLane="best" from="-511352036#2" to="-11819330"/>
    <trip id="truck39" type="truck_truck" depart="224.63" departLane="best" departSpeed="max" from="-511352035" to="-11819330"/>
    <trip id="truck40" type="truck_truck" depart="230.39" departLane="best" departSpeed="max" from="11819330" to="54358148"/>
    <trip id="truck41" type="truck_truck" depart="236.15" departLane="best" departSpeed="max" from="54358147" to="-11819330"/>
    <trip id="truck42" type="truck_truck" depart="241.91" departLane="best" departSpeed="max" from="-511352035" to="-11819330"/>
    <trip id="truck43" type="truck_truck" depart="247.67" departLane="best" from="-511352036#2" to="-11819330"/>
    <trip id="truck44" type="truck_truck" depart="253.43" departLane="best" departSpeed="max" from="11819330" to="54349866"/>
    <trip id="truck45" type="truck_truck" depart="259.19" departLane="best" departSpeed="max" from="54358147" to="-11819330"/>
    <trip id="truck46" type="truck_truck" depart="264.95" departLane="best" departSpeed="max" from="54358147" to="-11819330"/>
    <trip id="truck47" type="truck_truck" depart="270.71" departLane="best" departSpeed="max" from="54358147" to="-11819330"/>
    <trip id="truck48" type="truck_truck" depart="276.47" departLane="best" departSpeed="max" from="11819330" to="511352036#0"/>
    <trip id="truck49" type="truck_truck" depart="282.23" departLane="best" departSpeed="max" from="11819330" to="511352037#0"/>
    <trip id="truck50" type="truck_truck" depart="287.99" departLane="best" departSpeed="max" from="11819330" to="54349866"/>
    <trip id="truck51" type="truck_truck" depart="293.75" departLane="best" from="-511352050" to="-11819330"/>
    <trip id="truck52" type="truck_truck" depart="299.51" departLane="best" departSpeed="max" from="11819330" to="511352036#0"/>
    <trip id="truck53" type="truck_truck" depart="305.27" departLane="best" departSpeed="max" from="11819330" to="54358148"/>
    <trip id="truck54" type="truck_truck" depart="311.02" departLane="best" departSpeed="max" from="54358147" to="-11819330"/>
    <trip id="truck55" type="truck_truck" depart="316.78" departLane="best" departSpeed="max" from="-511352035" to="-11819330"/>
    <trip id="truck56" type="truck_truck" depart="322.54" departLane="best" departSpeed="max" from="54358147" to="-11819330"/>
    <trip id="truck57" type="truck_truck" depart="328.30" departLane="best" departSpeed="max" from="11819330" to="54349866"/>
    <trip id="truck58" type="truck_truck" depart="334.06" departLane="best" from="-511352036#2" to="-11819330"/>
    <trip id="truck59" type="truck_truck" depart="339.82" departLane="best" departSpeed="max" from="11819330" to="54349866"/>
    <trip id="truck60" type="truck_truck" depart="345.58" departLane="best" departSpeed="max" from="11819330" to="54358148"/>
    <trip id="truck61" type="truck_truck" depart="351.34" departLane="best" departSpeed="max" from="11819330" to="511352037#0"/>
    <trip id="truck62" type="truck_truck" depart="357.10" departLane="best" departSpeed="max" from="11819330" to="511352036#0"/>
    <trip id="truck63" type="truck_truck" depart="362.86" departLane="best" departSpeed="max" from="11819330" to="54358148"/>
    <trip id="truck64" type="truck_truck" depart="368.62" departLane="best" departSpeed="max" from="11819330" to="54349866"/>
    <trip id="truck65" type="truck_truck" depart="374.38" departLane="best" from="-511352050" to="-11819330"/>
    <trip id="truck66" type="truck_truck" depart="380.14" departLane="best" departSpeed="max" from="11819330" to="54349866"/>
    <trip id="truck67" type="truck_truck" depart="385.90" departLane="best" from="-511352036#2" to="-11819330"/>
    <trip id="truck68" type="truck_truck" depart="391.66" departLane="best" departSpeed="max" from="11819330" to="511352037#0"/>
    <trip id="truck69" type="truck_truck" depart="397.42" departLane="best" from="-511352036#2" to="-11819330"/>
    <trip id="truck70" type="truck_truck" depart="403.18" departLane="best" departSpeed="max" from="-511352035" to="-11819330"/>
    <trip id="truck71" type="truck_truck" depart="408.94" departLane="best" departSpeed="max" from="11819330" to="511352036#0"/>
    <trip id="truck72" type="truck_truck" depart="414.70" departLane="best" departSpeed="max" from="-511352035" to="-11819330"/>
    <trip id="truck73" type="truck_truck" depart="420.46" departLane="best" departSpeed="max" from="11819330" to="511352035"/>
    <trip id="truck74" type="truck_truck" depart="426.22" departLane="best" departSpeed="max" from="11819330" to="511352035"/>
    <trip id="truck75" type="truck_truck" depart="431.98" departLane="best" departSpeed="max" from="11819330" to="511352035"/>
    <trip id="truck76" type="truck_truck" depart="437.74" departLane="best" departSpeed="max" from="11819330" to="54349866"/>
    <trip id="truck77" type="truck_truck" depart="443.50" departLane="best" departSpeed="max" from="54358147" to="-11819330"/>
    <trip id="truck78" type="truck_truck" depart="449.26" departLane="best" from="-511352050" to="-11819330"/>
    <trip id="truck79" type="truck_truck" depart="455.02" departLane="best" departSpeed="max" from="54358147" to="-11819330"/>
    <trip id="truck80" type="truck_truck" depart="460.78" departLane="best" departSpeed="max" from="11819330" to="54349866"/>
    <trip id="truck81" type="truck_truck" depart="466.54" departLane="best" departSpeed="max" from="11819330" to="54349866"/>
    <trip id="truck82" type="truck_truck" depart="472.30" departLane="best" departSpeed="max" from="11819330" to="511352035"/>
    <trip id="truck83" type="truck_truck" depart="478.06" departLane="best" departSpeed="max" from="11819330" to="511352035"/>
    <trip id="truck84" type="truck_truck" depart="483.82" departLane="best" from="-511352036#2" to="-11819330"/>
    <trip id="truck85" type="truck_truck" depart="489.58" departLane="best" departSpeed="max" from="-511352035" to="-11819330"/>
    <trip id="truck86" type="truck_truck" depart="495.34" departLane="best" departSpeed="max" from="11819330" to="54349866"/>
    <trip id="truck87" type="truck_truck" depart="501.10" departLane="best" departSpeed="max" from="11819330" to="54349866"/>
    <trip id="truck88" type="truck_truck" depart="506.86" departLane="best" from="-511352036#2" to="-11819330"/>
    <trip id="truck89" type="truck_truck" depart="512.62" departLane="best" departSpeed="max" from="-511352035" to="-11819330"/>
    <trip id="truck90" type="truck_truck" depart="518.37" departLane="best" departSpeed="max" from="11819330" to="511352035"/>
    <trip id="truck91" type="truck_truck" depart="524.13" departLane="best" departSpeed="max" from="-511352035" to="-11819330"/>
    <trip id="truck92" type="truck_truck" depart="529.89" departLane="best" departSpeed="max" from="-511352035" to="-11819330"/>
    <trip id="truck93" type="truck_truck" depart="535.65" departLane="best" departSpeed="max" from="54358147" to="-11819330"/>
    <trip id="truck94" type="truck_truck" depart="541.41" departLane="best" departSpeed="max" from="11819330" to="511352035"/>
    <trip id="truck95" type="truck_truck" depart="547.17" departLane="best" departSpeed="max" from="11819330" to="54358148"/>
    <trip id="truck96" type="truck_truck" depart="552.93" departLane="best" from="-511352036#2" to="-11819330"/>
    <trip id="truck97" type="truck_truck" depart="558.69" departLane="best" departSpeed="max" from="-511352035" to="-11819330"/>
    <trip id="truck98" type="truck_truck" depart="564.45" departLane="best" departSpeed="max" from="11819330" to="511352037#0"/>
    <trip id="truck99" type="truck_truck" depart="570.21" departLane="best" departSpeed="max" from="54358147" to="-11819330"/>
    <trip id="truck100" type="truck_truck" depart="575.97" departLane="best" departSpeed="max" from="11819330" to="54349866"/>
    <trip id="truck101" type="truck_truck" depart="581.73" departLane="best" departSpeed="max" from="54358147" to="-11819330"/>
    <trip id="truck102" type="truck_truck" depart="587.49" departLane="best" departSpeed="max" from="11819330" to="54349866"/>
    <trip id="truck103" type="truck_truck" depart="593.25" departLane="best" departSpeed="max" from="11819330" to="511352035"/>
    <trip id="truck104" type="truck_truck" depart="599.01" departLane="best" departSpeed="max" from="11819330" to="511352036#0"/>
    <trip id="truck105" type="truck_truck" depart="604.77" departLane="best" departSpeed="max" from="11819330" to="511352035"/>
    <trip id="truck106" type="truck_truck" depart="610.53" departLane="best" departSpeed="max" from="11819330" to="54358148"/>
    <trip id="truck107" type="truck_truck" depart="616.29" departLane="best" departSpeed="max" from="11819330" to="54349866"/>
    <trip id="truck108" type="truck_truck" depart="622.05" departLane="best" departSpeed="max" from="11819330" to="511352035"/>
    <trip id="truck109" type="truck_truck" depart="627.81" departLane="best" departSpeed="max" from="11819330" to="54358148"/>
    <trip id="truck110" type="truck_truck" depart="633.57" departLane="best" departSpeed="max" from="11819330" to="54358148"/>
    <trip id="truck111" type="truck_truck" depart="639.33" departLane="best" departSpeed="max" from="11819330" to="54358148"/>
    <trip id="truck112" type="truck_truck" depart="645.09" departLane="best" departSpeed="max" from="11819330" to="511352035"/>
    <trip id="truck113" type="truck_truck" depart="650.85" departLane="best" departSpeed="max" from="11819330" to="511352037#0"/>
    <trip id="truck114" type="truck_truck" depart="656.61" departLane="best" departSpeed="max" from="11819330" to="511352035"/>
    <trip id="truck115" type="truck_truck" depart="662.37" departLane="best" departSpeed="max" from="54358147" to="-11819330"/>
    <trip id="truck116" type="truck_truck" depart="668.13" departLane="best" departSpeed="max" from="11819330" to="54358148"/>
    <trip id="truck117" type="truck_truck" depart="673.89" departLane="best" departSpeed="max" from="11819330" to="511352035"/>
    <trip id="truck118" type="truck_truck" depart="679.65" departLane="best" from="-511352036#2" to="-11819330"/>
    <trip id="truck119" type="truck_truck" depart="685.41" departLane="best" departSpeed="max" from="11819330" to="54358148"/>
    <trip id="truck120" type="truck_truck" depart="691.17" departLane="best" departSpeed="max" from="54358147" to="-11819330"/>
    <trip id="truck121" type="truck_truck" depart="696.93" departLane="best" departSpeed="max" from="11819330" to="54349866"/>
    <trip id="truck122" type="truck_truck" depart="702.69" departLane="best" departSpeed="max" from="-511352035" to="-11819330"/>
    <trip id="truck123" type="truck_truck" depart="708.45" departLane="best" departSpeed="max" from="11819330" to="511352037#0"/>
    <trip id="truck124" type="truck_truck" depart="714.21" departLane="best" departSpeed="max" from="11819330" to="54358148"/>
    <trip id="truck125" type="truck_truck" depart="719.96" departLane="best" departSpeed="max" from="11819330" to="511352035"/>
    <trip id="truck126" type="truck_truck" depart="725.72" departLane="best" departSpeed="max" from="-511352035" to="-11819330"/>
    <trip id="truck127" type="truck_truck" depart="731.48" departLane="best" departSpeed="max" from="11819330" to="54358148"/>
    <trip id="truck128" type="truck_truck" depart="737.24" departLane="best" departSpeed="max" from="11819330" to="54358148"/>
    <trip id="truck129" type="truck_truck" depart="743.00" departLane="best" from="-511352050" to="-11819330"/>
    <trip id="truck130" type="truck_truck" depart="748.76" departLane="best" departSpeed="max" from="54358147" to="-11819330"/>
    <trip id="truck131" type="truck_truck" depart="754.52" departLane="best" departSpeed="max" from="11819330" to="54349866"/>
    <trip id="truck132" type="truck_truck" depart="760.28" departLane="best" departSpeed="max" from="11819330" to="54358148"/>
    <trip id="truck133" type="truck_truck" depart="766.04" departLane="best" departSpeed="max" from="-511352035" to="-11819330"/>
    <trip id="truck134" type="truck_truck" depart="771.80" departLane="best" departSpeed="max" from="11819330" to="511352035"/>
    <trip id="truck135" type="truck_truck" depart="777.56" departLane="best" departSpeed="max" from="54358147" to="-11819330"/>
    <trip id="truck136" type="truck_truck" depart="783.32" departLane="best" departSpeed="max" from="11819330" to="54358148"/>
    <trip id="truck137" type="truck_truck" depart="789.08" departLane="best" departSpeed="max" from="-511352035" to="-11819330"/>
    <trip id="truck138" type="truck_truck" depart="794.84" departLane="best" departSpeed="max" from="-511352035" to="-11819330"/>
    <trip id="truck139" type="truck_truck" depart="800.60" departLane="best" from="-511352036#2" to="-11819330"/>
    <trip id="truck140" type="truck_truck" depart="806.36" departLane="best" from="-511352036#2" to="-11819330"/>
    <trip id="truck141" type="truck_truck" depart="812.12" departLane="best" departSpeed="max" from="-511352035" to="-11819330"/>
    <trip id="truck142" type="truck_truck" depart="817.88" departLane="best" departSpeed="max" from="54358147" to="-11819330"/>
    <trip id="truck143" type="truck_truck" depart="823.64" departLane="best" departSpeed="max" from="11819330" to="511352035"/>
    <trip id="truck144" type="truck_truck" depart="829.40" departLane="best" departSpeed="max" from="54358147" to="-11819330"/>
    <trip id="truck145" type="truck_truck" depart="835.16" departLane="best" departSpeed="max" from="11819330" to="511352035"/>
    <trip id="truck146" type="truck_truck" depart="840.92" departLane="best" departSpeed="max" from="54358147" to="-11819330"/>
    <trip id="truck147" type="truck_truck" depart="846.68" departLane="best" departSpeed="max" from="11819330" to="511352035"/>
    <trip id="truck148" type="truck_truck" depart="852.44" departLane="best" departSpeed="max" from="11819330" to="511352036#0"/>
    <trip id="truck149" type="truck_truck" depart="858.20" departLane="best" departSpeed="max" from="11819330" to="54349866"/>
    <trip id="truck150" type="truck_truck" depart="863.96" departLane="best" from="-511352050" to="-11819330"/>
    <trip id="truck151" type="truck_truck" depart="869.72" departLane="best" departSpeed="max" from="54358147" to="-11819330"/>
    <trip id="truck152" type="truck_truck" depart="875.48" departLane="best" departSpeed="max" from="54358147" to="-11819330"/>
    <trip id="truck153" type="truck_truck" depart="881.24" departLane="best" departSpeed="max" from="11819330" to="511352037#0"/>
    <trip id="truck154" type="truck_truck" depart="887.00" departLane="best" departSpeed="max" from="11819330" to="511352035"/>
    <trip id="truck155" type="truck_truck" depart="892.76" departLane="best" departSpeed="max" from="11819330" to="511352036#0"/>
    <trip id="truck156" type="truck_truck" depart="898.52" departLane="best" departSpeed="max" from="11819330" to="54349866"/>
    <trip id="truck157" type="truck_truck" depart="904.28" departLane="best" from="-511352036#2" to="-11819330"/>
    <trip id="truck158" type="truck_truck" depart="910.04" departLane="best" from="-511352036#2" to="-11819330"/>
    <trip id="truck159" type="truck_truck" depart="915.80" departLane="best" from="-511352050" to="-11819330"/>
    <trip id="truck160" type="truck_truck" depart="921.56" departLane="best" from="-511352036#2" to="-11819330"/>
    <trip id="truck161" type="truck_truck" depart="927.31" departLane="best" departSpeed="max" from="11819330" to="511352035"/>
    <trip id="truck162" type="truck_truck" depart="933.07" departLane="best" departSpeed="max" from="-511352035" to="-11819330"/>
    <trip id="truck163" type="truck_truck" depart="938.83" departLane="best" departSpeed="max" from="-511352035" to="-11819330"/>
    <trip id="truck164" type="truck_truck" depart="944.59" departLane="best" departSpeed="max" from="-511352035" to="-11819330"/>
    <trip id="truck165" type="truck_truck" depart="950.35" departLane="best" departSpeed="max" from="11819330" to="511352037#0"/>
    <trip id="truck166" type="truck_truck" depart="956.11" departLane="best" departSpeed="max" from="-511352035" to="-11819330"/>
    <trip id="truck167" type="truck_truck" depart="961.87" departLane="best" departSpeed="max" from="11819330" to="54358148"/>
    <trip id="truck168" type="truck_truck" depart="967.63" departLane="best" departSpeed="max" from="54358147" to="-11819330"/>
    <trip id="truck169" type="truck_truck" depart="973.39" departLane="best" departSpeed="max" from="11819330" to="511352036#0"/>
    <trip id="truck170" type="truck_truck" depart="979.15" departLane="best" departSpeed="max" from="11819330" to="511352035"/>
    <trip id="truck171" type="truck_truck" depart="984.91" departLane="best" departSpeed="max" from="11819330" to="54349866"/>
    <trip id="truck172" type="truck_truck" depart="990.67" departLane="best" from="-511352036#2" to="-11819330"/>
    <trip id="truck173" type="truck_truck" depart="996.43" departLane="best" departSpeed="max" from="11819330" to="54358148"/>
    <trip id="truck174" type="truck_truck" depart="1002.19" departLane="best" departSpeed="max" from="11819330" to="54349866"/>
    <trip id="truck175" type="truck_truck" depart="1007.95" departLane="best" from="-511352036#2" to="-11819330"/>
    <trip id="truck176" type="truck_truck" depart="1013.71" departLane="best" departSpeed="max" from="11819330" to="511352035"/>
    <trip id="truck177" type="truck_truck" depart="1019.47" departLane="best" departSpeed="max" from="11819330" to="54349866"/>
    <trip id="truck178" type="truck_truck" depart="1025.23" departLane="best" departSpeed="max" from="-511352035" to="-11819330"/>
    <trip id="truck179" type="truck_truck" depart="1030.99" departLane="best" departSpeed="max" from="11819330" to="511352036#0"/>
    <trip id="truck180" type="truck_truck" depart="1036.75" departLane="best" departSpeed="max" from="-511352035" to="-11819330"/>
    <trip id="truck181" type="truck_truck" depart="1042.51" departLane="best" departSpeed="max" from="-511352035" to="-11819330"/>
    <trip id="truck182" type="truck_truck" depart="1048.27" departLane="best" departSpeed="max" from="54358147" to="-11819330"/>
    <trip id="truck183" type="truck_truck" depart="1054.03" departLane="best" from="-511352050" to="-11819330"/>
    <trip id="truck184" type="truck_truck" depart="1059.79" departLane="best" departSpeed="max" from="54358147" to="-11819330"/>
    <trip id="truck185" type="truck_truck" depart="1065.55" departLane="best" departSpeed="max" from="11819330" to="511352035"/>
    <trip id="truck186" type="truck_truck" depart="1071.31" departLane="best" departSpeed="max" from="11819330" to="511352035"/>
    <trip id="truck187" type="truck_truck" depart="1077.07" departLane="best" departSpeed="max" from="11819330" to="511352036#0"/>
    <trip id="truck188" type="truck_truck" depart="1082.83" departLane="best" departSpeed="max" from="54358147" to="-11819330"/>
    <trip id="truck189" type="truck_truck" depart="1088.59" departLane="best" departSpeed="max" from="54358147" to="-11819330"/>
    <trip id="truck190" type="truck_truck" depart="1094.35" departLane="best" departSpeed="max" from="11819330" to="54358148"/>
    <trip id="truck191" type="truck_truck" depart="1100.11" departLane="best" from="-511352050" to="-11819330"/>
    <trip id="truck192" type="truck_truck" depart="1105.87" departLane="best" from="-511352050" to="-11819330"/>
    <trip id="truck193" type="truck_truck" depart="1111.63" departLane="best" departSpeed="max" from="11819330" to="54349866"/>
    <trip id="truck194" type="truck_truck" depart="1117.39" departLane="best" from="-511352036#2" to="-11819330"/>
    <trip id="truck195" type="truck_truck" depart="1123.15" departLane="best" from="-511352036#2" to="-11819330"/>
    <trip id="truck196" type="truck_truck" depart="1128.91" departLane="best" departSpeed="max" from="54358147" to="-11819330"/>
    <trip id="truck197" type="truck_truck" depart="1134.66" departLane="best" departSpeed="max" from="11819330" to="511352036#0"/>
    <trip id="truck198" type="truck_truck" depart="1140.42" departLane="best" departSpeed="max" from="11819330" to="511352035"/>
    <trip id="truck199" type="truck_truck" depart="1146.18" departLane="best" from="-511352036#2" to="-11819330"/>
    <trip id="truck200" type="truck_truck" depart="1151.94" departLane="best" departSpeed="max" from="11819330" to="54358148"/>
    <trip id="truck201" type="truck_truck" depart="1157.70" departLane="best" departSpeed="max" from="11819330" to="54349866"/>
    <trip id="truck202" type="truck_truck" depart="1163.46" departLane="best" departSpeed="max" from="11819330" to="54358148"/>
    <trip id="truck203" type="truck_truck" depart="1169.22" departLane="best" departSpeed="max" from="11819330" to="54358148"/>
    <trip id="truck204" type="truck_truck" depart="1174.98" departLane="best" departSpeed="max" from="11819330" to="54349866"/>
    <trip id="truck205" type="truck_truck" depart="1180.74" departLane="best" departSpeed="max" from="11819330" to="54358148"/>
    <trip id="truck206" type="truck_truck" depart="1186.50" departLane="best" departSpeed="max" from="11819330" to="511352035"/>
    <trip id="truck207" type="truck_truck" depart="1192.26" departLane="best" departSpeed="max" from="11819330" to="54349866"/>
    <trip id="truck208" type="truck_truck" depart="1198.02" departLane="best" from="-511352050" to="-11819330"/>
    <trip id="truck209" type="truck_truck" depart="1203.78" departLane="best" departSpeed="max" from="54358147" to="-11819330"/>
    <trip id="truck210" type="truck_truck" depart="1209.54" departLane="best" departSpeed="max" from="11819330" to="511352036#0"/>
    <trip id="truck211" type="truck_truck" depart="1215.30" departLane="best" departSpeed="max" from="11819330" to="54349866"/>
    <trip id="truck212" type="truck_truck" depart="1221.06" departLane="best" from="-511352036#2" to="-11819330"/>
    <trip id="truck213" type="truck_truck" depart="1226.82" departLane="best" departSpeed="max" from="11819330" to="511352037#0"/>
    <trip id="truck214" type="truck_truck" depart="1232.58" departLane="best" departSpeed="max" from="11819330" to="54358148"/>
    <trip id="truck215" type="truck_truck" depart="1238.34" departLane="best" from="-511352050" to="-11819330"/>
    <trip id="truck216" type="truck_truck" depart="1244.10" departLane="best" departSpeed="max" from="11819330" to="54358148"/>